Version 4
SHEET 1 880 680
WIRE 192 64 144 64
WIRE 272 64 192 64
WIRE 416 64 272 64
WIRE 272 96 272 64
WIRE 288 96 272 96
WIRE 288 112 176 112
WIRE 368 112 320 112
WIRE 496 112 368 112
WIRE 288 128 256 128
WIRE 416 128 416 64
WIRE 368 144 368 112
WIRE 400 144 368 144
WIRE 176 160 176 112
WIRE 176 160 144 160
WIRE 496 160 464 160
WIRE 400 176 368 176
WIRE 192 192 192 64
WIRE 208 192 192 192
WIRE 272 192 272 96
WIRE 288 192 272 192
WIRE 176 208 176 160
WIRE 208 208 176 208
WIRE 288 208 240 208
WIRE 368 208 368 176
WIRE 368 208 320 208
WIRE 496 208 368 208
WIRE 208 224 192 224
WIRE 288 224 272 224
WIRE 192 256 192 224
WIRE 192 256 144 256
WIRE 256 256 256 128
WIRE 256 256 192 256
WIRE 272 256 272 224
WIRE 272 256 256 256
WIRE 416 256 416 192
WIRE 416 256 272 256
FLAG 144 160 A
FLAG 144 64 Vin
FLAG 144 256 Vout
FLAG 496 112 A0
FLAG 496 160 A1
FLAG 496 208 A2
SYMBOL NOR 464 160 R0
SYMATTR InstName X4
SYMBOL NNOT 320 112 R0
SYMATTR InstName X1
SYMBOL NNOT 320 208 R0
SYMATTR InstName X2
SYMBOL PNOT 240 208 R0
SYMATTR InstName X3
